LAMMPS (31 Mar 2017)
clear

#----------- Parameters --------------------------
variable tstep     equal 0.0005
variable tdamp     equal 0.05
variable TEMP      equal 300.00

variable PRERUN    equal 1e5
variable PRETHER   equal 100000/50
variable PREDUMP   equal 100000/5

variable DUMPSTEP  equal 16
variable NRUN      equal 520*16
variable THERSTEP  equal 8320/10

variable kb        equal 1.3806488e-23
variable ee        equal 1.60217657e-19

# ---------- Initialize Simulation ---------------
units         metal
atom_style    atomic
dimension     3
boundary      p p p
atom_modify   map array
read_data     data.lammps
  orthogonal box = (0 0 0) to (19.6761 19.6761 39.3522)
  reading atoms ...
  640 atoms
timestep      0.0005

# ---------- Define Interatomic Potential --------
pair_style tersoff
pair_coeff * * opt.tersoff C
Reading potential file opt.tersoff with DATE: 2011-04-26

neighbor      0.3 bin
neigh_modify  delay 0

# ---------- compute ---------------------
compute   displace all displace/atom
compute   eng      all pe/atom
compute   stress   all stress/atom NULL
compute   eatoms   all reduce sum c_eng
compute   stressz  all reduce sum c_stress[3]
compute   1        all temp
compute   ke       all ke/atom

#--------- Pre-calculation -----------------------

#--- 1. minimization
reset_timestep 0
fix       1 all box/relax z 10.0
dump      1 all custom 100000 mini.dump id type x y z
thermo    1000
minimize  1e-20 0.00001 50000 50000
  update every 1 steps, delay 0 steps, check yes
Step Temp E_pair E_mol TotEng Press Volume
0            0   -5062.1863            0   -5062.1863    44870.926    15235.154
Loop time of 0.169564 on 16 procs for 1335 steps with 640 atoms

Minimization stats:
  Stopping criterion = force tolerance
  Energy initial, next-to-last, final =
  Force two-norm initial, final = 597.936 6.62412e-06
  Force max component initial, final = 597.908 6.19619e-07
  Final line search alpha, max atom move = 1 6.19619e-07
  Iterations, force evaluations = 1335 1348

unfix     1
undump    1

#--- 3. pre-MD
reset_timestep 0

velocity  all create 300 4928459 rot yes dist gaussian
fix       2 all nvt temp 300. 300. 0.05

thermo    2000
run       100000
Step Temp E_pair E_mol TotEng Press
0          300   -5071.8382            0   -5047.0591    1715.5726
Averages over the last 26 of 51 rows, steps 50000 to 100000:
Temp E_pair E_mol TotEng Press
300.281 -5046.76 0 -5021.95 199.464
Loop time of 8.45477 on 16 procs for 100000 steps with 640 atoms

unfix     2
#undump    2

#--- 3. normal MD
reset_timestep 0

fix         3 all nvt temp 300. 300. 0.05
thermo      832
dump        3 all custom 16 md4band.dump id type x y z vx vy vz
dump_modify 3 sort id
run         8320
Step Temp E_pair E_mol TotEng Press
0    314.68131   -5045.9505            0   -5019.9587    460.86617
Averages over the last 6 of 11 rows, steps 4160 to 8320:
Temp E_pair E_mol TotEng Press
305.35 -5047.36 0 -5022.13 1800
Loop time of 0.813178 on 16 procs for 8320 steps with 640 atoms

unfix       3
undump      3

print "All done!"
All done!
